/*--------------------------------*- C++ -*----------------------------------*\
  =========                 |
  \\      /  F ield         | OpenFOAM: The Open Source CFD Toolbox
   \\    /   O peration     | Website:  https://openfoam.org
    \\  /    A nd           | Version:  10
     \\/     M anipulation  |
\*---------------------------------------------------------------------------*/
FoamFile
{
    format      ascii;
    class       dictionary;
    object      blockMeshDict;
}
// * * * * * * * * * * * * * * * * * * * * * * * * * * * * * * * * * * * * * //

backgroundMesh
{
    xMin   -80;
    xMax   130;
    yMin   -50;
    yMax    60;
    zMin    -5;
    zMax   130;

    xCells  50;
    yCells  100;
    zCells  40;
}

convertToMeters 1;

vertices
(
    ($!backgroundMesh/xMin $!backgroundMesh/yMin $!backgroundMesh/zMin) // 0
    ($!backgroundMesh/xMax $!backgroundMesh/yMin $!backgroundMesh/zMin) // 1
    ($!backgroundMesh/xMax $!backgroundMesh/yMax $!backgroundMesh/zMin) // 2
    ($!backgroundMesh/xMin $!backgroundMesh/yMax $!backgroundMesh/zMin) // 3

    ($!backgroundMesh/xMin $!backgroundMesh/yMin $!backgroundMesh/zMax) // 4
    ($!backgroundMesh/xMax $!backgroundMesh/yMin $!backgroundMesh/zMax) // 5
    ($!backgroundMesh/xMax $!backgroundMesh/yMax $!backgroundMesh/zMax) // 6
    ($!backgroundMesh/xMin $!backgroundMesh/yMax $!backgroundMesh/zMax) // 7
);

blocks
(
    hex (0 1 2 3 4 5 6 7)
    (
        $!backgroundMesh/xCells
        $!backgroundMesh/yCells
        $!backgroundMesh/zCells
    )
    simpleGrading (1 1 1)
);

boundary
(
    lowBoundary
    {
        type wall;
        faces
        (
            (0 1 2 3)
        );
    }

    topBoundary
    {
        type wall;
        faces
        (
            (4 5 6 7)
        );
    }

    backLower
    {
        type wall;
        faces
        (
            (1 5 6 2)
        );
    }

    rightWall
    {
        type wall;
        faces
        (
            (0 3 7 4)
        );
    }

    backBoundary
    {
        type symmetry;
        faces
        (
            (0 4 5 1)
        );
    }

    frontBoundary
    {
        type symmetry;
        faces
        (
            (3 2 6 7)
        );
    }

);

// ************************************************************************* //
