/*--------------------------------*- C++ -*----------------------------------*\
  =========                 |
  \\      /  F ield         | OpenFOAM: The Open Source CFD Toolbox
   \\    /   O peration     | Website:  https://openfoam.org
    \\  /    A nd           | Version:  9
     \\/     M anipulation  |
\*---------------------------------------------------------------------------*/
FoamFile
{
    format      ascii;
    class       dictionary;
    object      fvSolution;
}
// * * * * * * * * * * * * * * * * * * * * * * * * * * * * * * * * * * * * * //

solvers
{
    p
    {
        solver          GAMG;
        smoother        GaussSeidel;
        tolerance       1e-6;
        relTol          0.1;
    }
    pFinal
    {
        $p;
	tolerance        1e-6;
	relTol           0.1;
    }

    "(U|k|omega|epsilon)"
    {
        solver          smoothSolver;
        //smoother        GaussSeidel;
        smoother        symGaussSeidel;
        tolerance       1e-6;
        relTol          0.1;
    }
    "(U|k|omega|epsilon)Final"
    {
        $U;
        relTol          0.1;
    }

    C
    {
        $U;
        relTol          0;
    }
    // C
    // {
        // solver      PBiCGStab;
        // preconditioner  DILU;
        // tolerance       1e-6;
        // minInter        1;
        // relTol          0;
    // }
    // CFinal
    // {
        // solver      PBiCGStab;
        // preconditioner  DILU;
        // tolerance       1e-6;
        // relTol          0;
        // minInter        1;
    // }
}

PIMPLE
{
    correctPhi          yes;
    correctMeshPhi      no;
    nOuterCorrectors    2;
    nCorrectors         1;
    nNonOrthogonalCorrectors 0;
}

SIMPLE
{
    consistent          yes;

    residualControl
    {
        p               1e-3;
        U               1e-4;
        "(k|epsilon)"   1e-4;
    }
}

potentialFlow
{
    nNonOrthogonalCorrectors 10;
}

relaxationFactors
{
    fields
    {
        p               0.3;
    }
    equations
    {
        U               0.7;
        "(k|omega|epsilon).*" 0.7;
    }
}

// ************************************************************************* //
